New line...... ?.
<!DOCTYPE html>
<html>

    <head>
    <meta>
        <title>Document 3 </title>
   
    
    </head>
    <body>

    
    
    
    
<h1>My Site here</h1>

<p>My progres</p>

        <p> hi</p>
    
    
    
    
    
</body>
</html>